<?xml version="1.0" encoding="UTF-8"?>

<!-- generated on 2026-07-19T11:10:55.971389+05:30 by Eclipse SUMO netconvert 1.27.1
<netconvertConfiguration xmlns:xsi="http://www.w3.org/2001/XMLSchema-instance" xsi:noNamespaceSchemaLocation="http://sumo.dlr.de/xsd/netconvertConfiguration.xsd">

    <input>
        <osm-files value="map.osm"/>
    </input>

    <output>
        <output-file value="network.net.xml"/>
    </output>

    <projection>
        <proj.utm value="true"/>
    </projection>

    <processing>
        <geometry.remove value="true"/>
        <roundabouts.guess value="true"/>
    </processing>

    <tls_building>
        <tls.discard-simple value="true"/>
        <tls.join value="true"/>
        <tls.guess-signals value="true"/>
    </tls_building>

    <ramp_guessing>
        <ramps.guess value="true"/>
    </ramp_guessing>

    <junctions>
        <junctions.join value="true"/>
    </junctions>

</netconvertConfiguration>
-->

<net version="1.20" junctionCornerDetail="5" limitTurnSpeed="5.50" xmlns:xsi="http://www.w3.org/2001/XMLSchema-instance" xsi:noNamespaceSchemaLocation="http://sumo.dlr.de/xsd/net_file.xsd">

    <location netOffset="-375937.30,-2244671.64" convBoundary="0.00,0.00,2328.31,3161.51" origBoundary="85.811701,20.295980,85.833997,20.324517" projParameter="+proj=utm +zone=45 +ellps=WGS84 +datum=WGS84 +units=m +no_defs"/>

    <type id="highway.primary" priority="12" numLanes="2" speed="27.78" disallow="tram rail_urban rail rail_electric rail_fast ship container cable_car subway aircraft wheelchair scooter drone" oneway="0"/>
    <type id="highway.primary_link" priority="7" numLanes="1" speed="22.22" disallow="tram rail_urban rail rail_electric rail_fast ship container cable_car subway aircraft wheelchair scooter drone" oneway="0"/>
    <type id="highway.residential" priority="3" numLanes="1" speed="13.89" disallow="tram rail_urban rail rail_electric rail_fast ship container cable_car subway aircraft wheelchair scooter drone" oneway="0"/>
    <type id="highway.secondary" priority="11" numLanes="1" speed="27.78" disallow="tram rail_urban rail rail_electric rail_fast ship container cable_car subway aircraft wheelchair scooter drone" oneway="0"/>
    <type id="highway.service" priority="1" numLanes="1" speed="5.56" allow="pedestrian delivery bicycle" oneway="0"/>
    <type id="highway.tertiary" priority="10" numLanes="1" speed="22.22" disallow="tram rail_urban rail rail_electric rail_fast ship container cable_car subway aircraft wheelchair scooter drone" oneway="0"/>
    <type id="highway.tertiary_link" priority="5" numLanes="1" speed="22.22" disallow="tram rail_urban rail rail_electric rail_fast ship container cable_car subway aircraft wheelchair scooter drone" oneway="0"/>
    <type id="highway.unclassified" priority="4" numLanes="1" speed="13.89" disallow="tram rail_urban rail rail_electric rail_fast ship container cable_car subway aircraft wheelchair scooter drone" oneway="0"/>

    <edge id=":11149955504_0" function="internal">
        <lane id=":11149955504_0_0" index="0" allow="pedestrian delivery bicycle" speed="5.10" length="5.01" shape="556.40,2161.51 556.07,2160.20 555.39,2159.29 554.37,2158.79 552.99,2158.70"/>
    </edge>
    <edge id=":11149955504_1" function="internal">
        <lane id=":11149955504_1_0" index="0" allow="pedestrian delivery bicycle" speed="5.56" length="9.32" shape="556.40,2161.51 555.66,2152.21"/>
    </edge>
    <edge id=":11149955504_2" function="internal">
        <lane id=":11149955504_2_0" index="0" allow="pedestrian delivery bicycle" speed="3.65" length="4.67" shape="556.40,2161.51 557.08,2160.23 557.83,2159.75 558.67,2160.07 559.59,2161.18"/>
    </edge>
    <edge id=":11149955504_3" function="internal">
        <lane id=":11149955504_3_0" index="0" allow="pedestrian delivery bicycle" speed="5.56" length="9.17" shape="558.85,2152.03 559.59,2161.18"/>
    </edge>
    <edge id=":11149955504_4" function="internal">
        <lane id=":11149955504_4_0" index="0" allow="pedestrian delivery bicycle" speed="5.56" length="10.09" shape="558.85,2152.03 558.62,2154.78 557.56,2156.81 555.69,2158.11 552.99,2158.70"/>
    </edge>
    <edge id=":11149955504_5" function="internal">
        <lane id=":11149955504_5_0" index="0" allow="pedestrian delivery bicycle" speed="3.65" length="4.67" shape="558.85,2152.03 558.12,2153.28 557.35,2153.72 556.52,2153.37 555.66,2152.21"/>
    </edge>
    <edge id=":11149955504_6" function="internal">
        <lane id=":11149955504_6_0" index="0" allow="pedestrian delivery bicycle" speed="5.06" length="4.98" shape="552.76,2155.51 554.10,2155.22 555.02,2154.57 555.54,2153.57 555.66,2152.21"/>
    </edge>
    <edge id=":11149955504_7" function="internal">
        <lane id=":11149955504_7_0" index="0" allow="pedestrian delivery bicycle" speed="5.56" length="10.05" shape="552.76,2155.51 555.51,2155.69 557.56,2156.70 558.92,2158.53 559.59,2161.18"/>
    </edge>
    <edge id=":11149955504_8" function="internal">
        <lane id=":11149955504_8_0" index="0" allow="pedestrian delivery bicycle" speed="3.65" length="4.67" shape="552.76,2155.51 554.02,2156.22 554.47,2156.99 554.13,2157.81 552.99,2158.70"/>
    </edge>
    <edge id=":11150038221_0" function="internal">
        <lane id=":11150038221_0_0" index="0" allow="pedestrian delivery bicycle" speed="3.90" length="2.61" shape="922.14,2331.88 921.67,2332.43 921.50,2332.99 921.61,2333.56 922.00,2334.16"/>
    </edge>
    <edge id=":11150038221_1" function="internal">
        <lane id=":11150038221_1_0" index="0" allow="pedestrian delivery bicycle" speed="5.56" length="2.71" shape="922.14,2331.88 921.59,2334.54"/>
    </edge>
    <edge id=":11150038221_2" function="internal">
        <lane id=":11150038221_2_0" index="0" allow="pedestrian delivery bicycle" speed="5.56" length="3.24" shape="921.52,2331.34 920.80,2331.53 920.64,2332.06 921.04,2332.94 921.64,2333.70"/>
    </edge>
    <edge id=":11150038221_3" function="internal">
        <lane id=":11150038221_3_0" index="0" allow="pedestrian delivery bicycle" speed="3.65" length="2.34" shape="921.52,2331.34 922.74,2332.11 923.16,2332.90"/>
    </edge>
    <edge id=":11150038221_4" function="internal">
        <lane id=":11150038221_4_0" index="0" allow="pedestrian delivery bicycle" speed="5.56" length="0.59" shape="921.64,2333.70 922.00,2334.16"/>
    </edge>
    <edge id=":11150038221_5" function="internal">
        <lane id=":11150038221_5_0" index="0" allow="pedestrian delivery bicycle" speed="3.65" length="2.34" shape="923.16,2332.90 922.78,2333.71 921.59,2334.54"/>
    </edge>
    <edge id=":11150102405_0" function="internal">
        <lane id=":11150102405_0_0" index="0" allow="pedestrian delivery bicycle" speed="3.65" length="4.67" shape="571.22,2289.41 570.49,2290.66 569.72,2291.11 568.90,2290.76 568.02,2289.61"/>
    </edge>
    <edge id=":11155666341_0" function="internal">
        <lane id=":11155666341_0_0" index="0" disallow="tram rail_urban rail rail_electric rail_fast ship container cable_car subway aircraft wheelchair scooter drone" speed="6.20" length="7.83" shape="355.44,1701.33 355.76,1699.90 356.88,1698.81 358.79,1698.03 361.49,1697.59"/>
    </edge>
    <edge id=":11155666341_1" function="internal">
        <lane id=":11155666341_1_0" index="0" disallow="tram rail_urban rail rail_electric rail_fast ship container cable_car subway aircraft wheelchair scooter drone" speed="3.65" length="4.67" shape="355.44,1701.33 356.18,1700.09 356.96,1699.65 357.78,1700.01 358.64,1701.17"/>
    </edge>
    <edge id=":11155666341_2" function="internal">
        <lane id=":11155666341_2_0" index="0" disallow="tram rail_urban rail rail_electric rail_fast ship container cable_car subway aircraft wheelchair scooter drone" speed="22.22" length="9.41" shape="352.13,1698.45 361.49,1697.59"/>
    </edge>
    <edge id=":11155666341_3" function="internal">
        <lane id=":11155666341_3_0" index="0" disallow="tram rail_urban rail rail_electric rail_fast ship container cable_car subway aircraft wheelchair scooter drone" speed="6.04" length="7.88" shape="352.13,1698.45 354.91,1698.40 356.93,1698.84 358.17,1699.76 358.64,1701.17"/>
    </edge>
    <edge id=":11563898064_0" function="internal">
        <lane id=":11563898064_0_0" index="0" disallow="tram rail_urban rail rail_electric rail_fast ship container cable_car subway aircraft wheelchair scooter drone" speed="3.65" length="4.67" shape="923.33,2265.67 921.89,2265.76 921.09,2265.37 920.92,2264.49 921.39,2263.13"/>
    </edge>
    <edge id=":12438735280_0" function="internal">
        <lane id=":12438735280_0_0" index="0" disallow="tram rail_urban rail rail_electric rail_fast ship container cable_car subway aircraft wheelchair scooter drone" speed="27.78" length="8.01" shape="888.26,1625.58 887.77,1617.59"/>
        <lane id=":12438735280_0_1" index="1" disallow="tram rail_urban rail rail_electric rail_fast ship container cable_car subway aircraft wheelchair scooter drone" speed="27.78" length="8.01" shape="891.45,1625.39 890.97,1617.40"/>
    </edge>
    <edge id=":12438735280_2" function="internal">
        <lane id=":12438735280_2_0" index="0" disallow="tram rail_urban rail rail_electric rail_fast ship container cable_car subway aircraft wheelchair scooter drone" speed="5.75" length="7.20" width="1.60" shape="891.45,1625.39 891.58,1623.24 892.27,1621.72 893.52,1620.81 895.33,1620.52"/>
    </edge>
    <edge id=":12438735280_3" function="internal">
        <lane id=":12438735280_3_0" index="0" disallow="tram rail_urban rail rail_electric rail_fast ship container cable_car subway aircraft wheelchair scooter drone" speed="5.85" length="7.20" shape="895.31,1622.12 893.52,1621.81 892.20,1620.92 891.35,1619.45 890.97,1617.40"/>
    </edge>
    <edge id=":12438735280_4" function="internal">
        <lane id=":12438735280_4_0" index="0" disallow="tram rail_urban rail rail_electric rail_fast ship container cable_car subway aircraft wheelchair scooter drone" speed="2.58" length="2.34" width="1.60" shape="895.31,1622.12 894.72,1621.72 894.52,1621.31 894.73,1620.92 895.33,1620.52"/>
    </edge>
    <edge id=":12438735284_0" function="internal">
        <lane id=":12438735284_0_0" index="0" disallow="tram rail_urban rail rail_electric rail_fast ship container cable_car subway aircraft wheelchair scooter drone" speed="2.58" length="2.34" width="1.60" shape="1019.64,1612.59 1020.32,1612.84 1020.61,1613.18 1020.51,1613.62 1020.02,1614.15"/>
    </edge>
    <edge id=":12439004666_0" function="internal">
        <lane id=":12439004666_0_0" index="0" allow="pedestrian delivery bicycle" speed="6.25" length="7.87" shape="508.87,1687.35 509.16,1685.90 510.25,1684.75 512.14,1683.90 514.82,1683.35"/>
    </edge>
    <edge id=":12439004666_1" function="internal">
        <lane id=":12439004666_1_0" index="0" allow="pedestrian delivery bicycle" speed="3.65" length="4.67" shape="508.87,1687.35 509.59,1686.10 510.36,1685.64 511.19,1685.99 512.06,1687.13"/>
    </edge>
    <edge id=":12439004666_2" function="internal">
        <lane id=":12439004666_2_0" index="0" disallow="tram rail_urban rail rail_electric rail_fast ship container cable_car subway aircraft wheelchair scooter drone" speed="22.22" length="8.91" shape="505.99,1684.50 514.82,1683.35"/>
    </edge>
    <edge id=":12439004666_3" function="internal">
        <lane id=":12439004666_3_0" index="0" allow="pedestrian delivery bicycle" speed="5.87" length="7.49" shape="505.99,1684.50 508.56,1684.37 510.43,1684.77 511.60,1685.69 512.06,1687.13"/>
    </edge>
    <edge id=":12439004667_0" function="internal">
        <lane id=":12439004667_0_0" index="0" allow="pedestrian delivery bicycle" speed="3.65" length="4.67" shape="516.91,1760.05 516.19,1761.30 515.42,1761.76 514.59,1761.41 513.71,1760.27"/>
    </edge>
    <edge id=":12637792073_0" function="internal">
        <lane id=":12637792073_0_0" index="0" allow="pedestrian delivery bicycle" speed="5.24" length="5.25" shape="1223.98,1682.41 1223.73,1681.09 1223.06,1680.13 1221.98,1679.55 1220.49,1679.32"/>
    </edge>
    <edge id=":12637792073_1" function="internal">
        <lane id=":12637792073_1_0" index="0" allow="pedestrian delivery bicycle" speed="5.56" length="9.41" shape="1223.98,1682.41 1223.65,1673.00"/>
    </edge>
    <edge id=":12637792073_2" function="internal">
        <lane id=":12637792073_2_0" index="0" allow="pedestrian delivery bicycle" speed="3.65" length="4.67" shape="1223.98,1682.41 1224.74,1681.18 1225.53,1680.75 1226.34,1681.12 1227.18,1682.29"/>
    </edge>
    <edge id=":12637792073_3" function="internal">
        <lane id=":12637792073_3_0" index="0" allow="pedestrian delivery bicycle" speed="5.56" length="9.41" shape="1226.84,1672.89 1227.18,1682.29"/>
    </edge>
    <edge id=":12637792073_4" function="internal">
        <lane id=":12637792073_4_0" index="0" allow="pedestrian delivery bicycle" speed="5.56" length="10.46" shape="1226.84,1672.89 1226.54,1675.76 1225.37,1677.79 1223.36,1678.98 1220.49,1679.32"/>
    </edge>
    <edge id=":12637792073_5" function="internal">
        <lane id=":12637792073_5_0" index="0" allow="pedestrian delivery bicycle" speed="3.65" length="4.67" shape="1226.84,1672.89 1226.09,1674.12 1225.30,1674.55 1224.49,1674.17 1223.65,1673.00"/>
    </edge>
    <edge id=":12637792073_6" function="internal">
        <lane id=":12637792073_6_0" index="0" allow="pedestrian delivery bicycle" speed="4.98" length="5.07" shape="1220.56,1676.12 1221.95,1675.96 1222.93,1675.38 1223.50,1674.40 1223.65,1673.00"/>
    </edge>
    <edge id=":12637792073_7" function="internal">
        <lane id=":12637792073_7_0" index="0" allow="pedestrian delivery bicycle" speed="5.56" length="10.18" shape="1220.56,1676.12 1223.38,1676.57 1225.42,1677.74 1226.69,1679.65 1227.18,1682.29"/>
    </edge>
    <edge id=":12637792073_8" function="internal">
        <lane id=":12637792073_8_0" index="0" allow="pedestrian delivery bicycle" speed="3.65" length="4.67" shape="1220.56,1676.12 1221.74,1676.95 1222.12,1677.76 1221.71,1678.55 1220.49,1679.32"/>
    </edge>
    <edge id=":13539939368_0" function="internal">
        <lane id=":13539939368_0_0" index="0" disallow="tram rail_urban rail rail_electric rail_fast ship container cable_car subway aircraft wheelchair scooter drone" speed="13.89" length="9.43" shape="554.77,1845.73 545.39,1846.68"/>
    </edge>
    <edge id=":13539939368_1" function="internal">
        <lane id=":13539939368_1_0" index="0" allow="pedestrian delivery bicycle" speed="7.08" length="3.12" shape="554.77,1845.73 552.12,1845.60 551.70,1845.40"/>
    </edge>
    <edge id=":13539939368_7" function="internal">
        <lane id=":13539939368_7_0" index="0" allow="pedestrian delivery bicycle" speed="7.08" length="7.09" shape="551.70,1845.40 550.06,1844.60 548.59,1842.72 547.71,1839.99"/>
    </edge>
    <edge id=":13539939368_2" function="internal">
        <lane id=":13539939368_2_0" index="0" allow="pedestrian delivery bicycle" speed="5.32" length="5.34" shape="550.86,1839.41 551.32,1840.90 552.07,1841.92 553.11,1842.47 554.45,1842.55"/>
    </edge>
    <edge id=":13539939368_3" function="internal">
        <lane id=":13539939368_3_0" index="0" allow="pedestrian delivery bicycle" speed="6.80" length="10.57" shape="550.86,1839.41 550.97,1842.34 550.10,1844.53 548.24,1845.97 545.39,1846.68"/>
    </edge>
    <edge id=":13539939368_4" function="internal">
        <lane id=":13539939368_4_0" index="0" allow="pedestrian delivery bicycle" speed="3.65" length="4.67" shape="550.86,1839.41 550.29,1840.74 549.57,1841.27 548.71,1841.02 547.71,1839.99"/>
    </edge>
    <edge id=":13539939368_5" function="internal">
        <lane id=":13539939368_5_0" index="0" allow="pedestrian delivery bicycle" speed="4.96" length="5.10" shape="545.07,1843.49 546.45,1843.15 547.34,1842.45 547.77,1841.40 547.71,1839.99"/>
    </edge>
    <edge id=":13539939368_6" function="internal">
        <lane id=":13539939368_6_0" index="0" disallow="tram rail_urban rail rail_electric rail_fast ship container cable_car subway aircraft wheelchair scooter drone" speed="13.89" length="9.42" shape="545.07,1843.49 554.45,1842.55"/>
    </edge>
    <edge id=":13539939369_0" function="internal">
        <lane id=":13539939369_0_0" index="0" allow="pedestrian delivery bicycle" speed="3.65" length="4.67" shape="539.92,1797.45 540.49,1796.12 541.20,1795.59 542.06,1795.84 543.06,1796.87"/>
    </edge>
    <edge id=":2895081541_0" function="internal">
        <lane id=":2895081541_0_0" index="0" disallow="tram rail_urban rail rail_electric rail_fast ship container cable_car subway aircraft wheelchair scooter drone" speed="13.89" length="14.06" shape="508.91,1855.68 507.76,1841.67"/>
    </edge>
    <edge id=":2895081541_1" function="internal">
        <lane id=":2895081541_1_0" index="0" disallow="tram rail_urban rail rail_electric rail_fast ship container cable_car subway aircraft wheelchair scooter drone" speed="8.09" length="3.80" shape="508.91,1855.68 509.25,1851.89"/>
    </edge>
    <edge id=":2895081541_2" function="internal">
        <lane id=":2895081541_2_0" index="0" disallow="tram rail_urban rail rail_electric rail_fast ship container cable_car subway aircraft wheelchair scooter drone" speed="3.65" length="1.44" shape="508.91,1855.68 509.65,1854.44"/>
    </edge>
    <edge id=":2895081541_9" function="internal">
        <lane id=":2895081541_9_0" index="0" disallow="tram rail_urban rail rail_electric rail_fast ship container cable_car subway aircraft wheelchair scooter drone" speed="8.09" length="10.25" shape="509.25,1851.89 510.72,1849.06 513.33,1847.19 517.07,1846.28"/>
    </edge>
    <edge id=":2895081541_10" function="internal">
        <lane id=":2895081541_10_0" index="0" disallow="tram rail_urban rail rail_electric rail_fast ship container cable_car subway aircraft wheelchair scooter drone" speed="3.65" length="3.23" shape="509.65,1854.44 510.43,1853.99 511.25,1854.35 512.11,1855.50"/>
    </edge>
    <edge id=":2895081541_3" function="internal">
        <lane id=":2895081541_3_0" index="0" disallow="tram rail_urban rail rail_electric rail_fast ship container cable_car subway aircraft wheelchair scooter drone" speed="6.62" length="9.05" shape="517.38,1849.47 514.96,1850.05 513.28,1851.25 512.33,1853.07 512.11,1855.50"/>
    </edge>
    <edge id=":2895081541_4" function="internal">
        <lane id=":2895081541_4_0" index="0" disallow="tram rail_urban rail rail_electric rail_fast ship container cable_car subway aircraft wheelchair scooter drone" speed="8.00" length="14.09" shape="517.38,1849.47 513.53,1849.30 510.64,1847.95 508.72,1845.40 507.76,1841.67"/>
    </edge>
    <edge id=":2895081541_5" function="internal">
        <lane id=":2895081541_5_0" index="0" disallow="tram rail_urban rail rail_electric rail_fast ship container cable_car subway aircraft wheelchair scooter drone" speed="3.65" length="4.67" shape="517.38,1849.47 516.11,1848.79 515.63,1848.03 515.95,1847.20 517.07,1846.28"/>
    </edge>
    <edge id=":2895081541_6" function="internal">
        <lane id=":2895081541_6_0" index="0" disallow="tram rail_urban rail rail_electric rail_fast ship container cable_car subway aircraft wheelchair scooter drone" speed="6.51" length="8.97" shape="510.94,1841.32 511.55,1843.70 512.78,1845.32 514.61,1846.18 517.07,1846.28"/>
    </edge>
    <edge id=":2895081541_7" function="internal">
        <lane id=":2895081541_7_0" index="0" disallow="tram rail_urban rail rail_electric rail_fast ship container cable_car subway aircraft wheelchair scooter drone" speed="13.89" length="14.23" shape="510.94,1841.32 512.11,1855.50"/>
    </edge>
    <edge id=":2895081541_8" function="internal">
        <lane id=":2895081541_8_0" index="0" disallow="tram rail_urban rail rail_electric rail_fast ship container cable_car subway aircraft wheelchair scooter drone" speed="3.65" length="1.44" shape="510.94,1841.32 510.28,1842.60"/>
    </edge>
    <edge id=":2895081541_11" function="internal">
        <lane id=":2895081541_11_0" index="0" disallow="tram rail_urban rail rail_electric rail_fast ship container cable_car subway aircraft wheelchair scooter drone" speed="3.65" length="3.23" shape="510.28,1842.60 509.53,1843.08 508.69,1842.77 507.76,1841.67"/>
    </edge>
    <edge id=":2929034393_0" function="internal">
        <lane id=":2929034393_0_0" index="0" disallow="tram rail_urban rail rail_electric rail_fast ship container cable_car subway aircraft wheelchair scooter drone" speed="27.78" length="9.50" shape="906.32,2355.62 906.61,2365.17"/>
        <lane id=":2929034393_0_1" index="1" disallow="tram rail_urban rail rail_electric rail_fast ship container cable_car subway aircraft wheelchair scooter drone" speed="27.78" length="9.50" shape="903.12,2355.77 903.41,2365.21"/>
    </edge>
    <edge id=":2929034393_2" function="internal">
        <lane id=":2929034393_2_0" index="0" disallow="tram rail_urban rail rail_electric rail_fast ship container cable_car subway aircraft wheelchair scooter drone" speed="6.05" length="7.84" shape="903.12,2355.77 903.05,2358.54 902.53,2360.54 901.57,2361.74 900.18,2362.16"/>
    </edge>
    <edge id=":2929034393_3" function="internal">
        <lane id=":2929034393_3_0" index="0" disallow="tram rail_urban rail rail_electric rail_fast ship container cable_car subway aircraft wheelchair scooter drone" speed="6.10" length="7.82" shape="900.12,2358.96 901.52,2359.33 902.54,2360.50 903.17,2362.46 903.41,2365.21"/>
    </edge>
    <edge id=":2929034393_4" function="internal">
        <lane id=":2929034393_4_0" index="0" disallow="tram rail_urban rail rail_electric rail_fast ship container cable_car subway aircraft wheelchair scooter drone" speed="3.65" length="4.67" shape="900.12,2358.96 901.33,2359.74 901.75,2360.54 901.36,2361.34 900.18,2362.16"/>
    </edge>
    <edge id=":293466247_0" function="internal">
        <lane id=":293466247_0_0" index="0" disallow="tram rail_urban rail rail_electric rail_fast ship container cable_car subway aircraft wheelchair scooter drone" speed="3.65" length="4.67" shape="757.78,2805.72 756.95,2806.90 756.14,2807.28 755.35,2806.86 754.58,2805.64"/>
    </edge>
    <edge id=":3725644501_0" function="internal">
        <lane id=":3725644501_0_0" index="0" allow="pedestrian delivery bicycle" speed="3.65" length="4.67" shape="1475.72,1801.05 1476.93,1801.84 1477.34,1802.63 1476.95,1803.44 1475.76,1804.25"/>
    </edge>
    <edge id=":3725652980_0" function="internal">
        <lane id=":3725652980_0_0" index="0" disallow="tram rail_urban rail rail_electric rail_fast ship container cable_car subway aircraft wheelchair scooter drone" speed="6.68" length="9.21" shape="1346.33,2306.79 1343.79,2307.03 1341.90,2307.99 1340.67,2309.66 1340.09,2312.05"/>
    </edge>
    <edge id=":3725652980_1" function="internal">
        <lane id=":3725652980_1_0" index="0" disallow="tram rail_urban rail rail_electric rail_fast ship container cable_car subway aircraft wheelchair scooter drone" speed="7.97" length="14.26" shape="1346.33,2306.79 1342.47,2306.07 1339.80,2304.29 1338.30,2301.45 1337.98,2297.55"/>
    </edge>
    <edge id=":3725652980_2" function="internal">
        <lane id=":3725652980_2_0" index="0" disallow="tram rail_urban rail rail_electric rail_fast ship container cable_car subway aircraft wheelchair scooter drone" speed="3.65" length="4.67" shape="1346.33,2306.79 1345.16,2305.94 1344.80,2305.12 1345.23,2304.34 1346.46,2303.59"/>
    </edge>
    <edge id=":3725652980_3" function="internal">
        <lane id=":3725652980_3_0" index="0" disallow="tram rail_urban rail rail_electric rail_fast ship container cable_car subway aircraft wheelchair scooter drone" speed="6.47" length="9.03" shape="1341.17,2297.74 1341.38,2300.21 1342.33,2302.01 1344.02,2303.14 1346.46,2303.59"/>
    </edge>
    <edge id=":3725652980_4" function="internal">
        <lane id=":3725652980_4_0" index="0" disallow="tram rail_urban rail rail_electric rail_fast ship container cable_car subway aircraft wheelchair scooter drone" speed="13.89" length="14.35" shape="1341.17,2297.74 1340.09,2312.05"/>
    </edge>
    <edge id=":3725652980_5" function="internal">
        <lane id=":3725652980_5_0" index="0" disallow="tram rail_urban rail rail_electric rail_fast ship container cable_car subway aircraft wheelchair scooter drone" speed="3.65" length="1.44" shape="1341.17,2297.74 1340.30,2298.89"/>
    </edge>
    <edge id=":3725652980_9" function="internal">
        <lane id=":3725652980_9_0" index="0" disallow="tram rail_urban rail rail_electric rail_fast ship container cable_car subway aircraft wheelchair scooter drone" speed="3.65" length="3.23" shape="1340.30,2298.89 1339.48,2299.24 1338.70,2298.79 1337.98,2297.55"/>
    </edge>
    <edge id=":3725652980_6" function="internal">
        <lane id=":3725652980_6_0" index="0" disallow="tram rail_urban rail rail_electric rail_fast ship container cable_car subway aircraft wheelchair scooter drone" speed="13.89" length="14.25" shape="1336.90,2311.75 1337.98,2297.55"/>
    </edge>
    <edge id=":3725652980_7" function="internal">
        <lane id=":3725652980_7_0" index="0" disallow="tram rail_urban rail rail_electric rail_fast ship container cable_car subway aircraft wheelchair scooter drone" speed="8.15" length="3.81" shape="1336.90,2311.75 1337.79,2308.05"/>
    </edge>
    <edge id=":3725652980_8" function="internal">
        <lane id=":3725652980_8_0" index="0" disallow="tram rail_urban rail rail_electric rail_fast ship container cable_car subway aircraft wheelchair scooter drone" speed="3.65" length="1.44" shape="1336.90,2311.75 1337.81,2310.63"/>
    </edge>
    <edge id=":3725652980_10" function="internal">
        <lane id=":3725652980_10_0" index="0" disallow="tram rail_urban rail rail_electric rail_fast ship container cable_car subway aircraft wheelchair scooter drone" speed="8.15" length="10.37" shape="1337.79,2308.05 1339.68,2305.45 1342.57,2303.97 1346.46,2303.59"/>
    </edge>
    <edge id=":3725652980_11" function="internal">
        <lane id=":3725652980_11_0" index="0" disallow="tram rail_urban rail rail_electric rail_fast ship container cable_car subway aircraft wheelchair scooter drone" speed="3.65" length="3.23" shape="1337.81,2310.63 1338.64,2310.31 1339.40,2310.78 1340.09,2312.05"/>
    </edge>
    <edge id=":3725652989_0" function="internal">
        <lane id=":3725652989_0_0" index="0" disallow="tram rail_urban rail rail_electric rail_fast ship container cable_car subway aircraft wheelchair scooter drone" speed="3.65" length="4.67" shape="1631.37,2315.39 1632.53,2316.24 1632.90,2317.06 1632.47,2317.84 1631.23,2318.59"/>
    </edge>
    <edge id=":3725653013_0" function="internal">
        <lane id=":3725653013_0_0" index="0" disallow="tram rail_urban rail rail_electric rail_fast ship container cable_car subway aircraft wheelchair scooter drone" speed="6.71" length="9.29" shape="1337.90,2399.02 1335.32,2399.25 1333.40,2400.20 1332.14,2401.87 1331.54,2404.26"/>
    </edge>
    <edge id=":3725653013_1" function="internal">
        <lane id=":3725653013_1_0" index="0" disallow="tram rail_urban rail rail_electric rail_fast ship container cable_car subway aircraft wheelchair scooter drone" speed="7.92" length="14.38" shape="1337.90,2399.02 1334.00,2398.29 1331.34,2396.47 1329.90,2393.59 1329.70,2389.63"/>
    </edge>
    <edge id=":3725653013_2" function="internal">
        <lane id=":3725653013_2_0" index="0" disallow="tram rail_urban rail rail_electric rail_fast ship container cable_car subway aircraft wheelchair scooter drone" speed="3.65" length="4.67" shape="1337.90,2399.02 1336.74,2398.17 1336.37,2397.35 1336.81,2396.57 1338.04,2395.82"/>
    </edge>
    <edge id=":3725653013_3" function="internal">
        <lane id=":3725653013_3_0" index="0" disallow="tram rail_urban rail rail_electric rail_fast ship container cable_car subway aircraft wheelchair scooter drone" speed="6.40" length="9.04" shape="1332.89,2389.92 1333.02,2392.41 1333.92,2394.22 1335.59,2395.36 1338.04,2395.82"/>
    </edge>
    <edge id=":3725653013_4" function="internal">
        <lane id=":3725653013_4_0" index="0" disallow="tram rail_urban rail rail_electric rail_fast ship container cable_car subway aircraft wheelchair scooter drone" speed="13.89" length="14.40" shape="1332.89,2389.92 1331.54,2404.26"/>
    </edge>
    <edge id=":3725653013_5" function="internal">
        <lane id=":3725653013_5_0" index="0" disallow="tram rail_urban rail rail_electric rail_fast ship container cable_car subway aircraft wheelchair scooter drone" speed="3.65" length="1.44" shape="1332.89,2389.92 1331.98,2391.04"/>
    </edge>
    <edge id=":3725653013_9" function="internal">
        <lane id=":3725653013_9_0" index="0" disallow="tram rail_urban rail rail_electric rail_fast ship container cable_car subway aircraft wheelchair scooter drone" speed="3.65" length="3.23" shape="1331.98,2391.04 1331.15,2391.37 1330.39,2390.89 1329.70,2389.63"/>
    </edge>
    <edge id=":3725653013_6" function="internal">
        <lane id=":3725653013_6_0" index="0" disallow="tram rail_urban rail rail_electric rail_fast ship container cable_car subway aircraft wheelchair scooter drone" speed="13.89" length="14.39" shape="1328.36,2403.96 1329.70,2389.63"/>
    </edge>
    <edge id=":3725653013_7" function="internal">
        <lane id=":3725653013_7_0" index="0" disallow="tram rail_urban rail rail_electric rail_fast ship container cable_car subway aircraft wheelchair scooter drone" speed="8.17" length="3.97" shape="1328.36,2403.96 1329.27,2400.25 1329.36,2400.12"/>
    </edge>
    <edge id=":3725653013_8" function="internal">